2

Ar 0 0 0
Ar 75.3344 17.6569 68.6548
2

Ar 25.8018 27.415 34.9119
Ar 75.3344 17.6569 68.6548
2

Ar 25.8018 27.415 34.9119
Ar 11.8061 64.4894 93.2437
2

Ar 25.8018 27.415 34.9119
Ar 11.8061 64.4894 93.2437
2

Ar 25.8018 27.415 34.9119
Ar 11.8061 64.4894 93.2437
2

Ar 25.8018 27.415 34.9119
Ar 11.8061 64.4894 93.2437
2

Ar 36.6882 45.0421 42.4857
Ar 11.8061 64.4894 93.2437
2

Ar 36.6882 45.0421 42.4857
Ar 53.7072 88.8448 97.1142
2

Ar 36.6882 45.0421 42.4857
Ar 53.7072 88.8448 97.1142
2

Ar 36.6882 45.0421 42.4857
Ar 53.7072 88.8448 97.1142
2

Ar 36.6882 45.0421 42.4857
Ar 53.7072 88.8448 97.1142
2

Ar 36.6882 45.0421 42.4857
Ar 53.7072 88.8448 97.1142
2

Ar 36.6882 45.0421 42.4857
Ar 81.3663 7.73505 31.0224
2

Ar 36.6882 45.0421 42.4857
Ar 81.3663 7.73505 31.0224
2

Ar 36.6882 45.0421 42.4857
Ar 81.3663 7.73505 31.0224
2

Ar 36.6882 45.0421 42.4857
Ar 20.0238 45.674 43.056
2

Ar 36.6882 45.0421 42.4857
Ar 20.0238 45.674 43.056
2

Ar 36.6882 45.0421 42.4857
Ar 20.0238 45.674 43.056
2

Ar 36.6882 45.0421 42.4857
Ar 20.0238 45.674 43.056
2

Ar 70.7998 92.1634 50.4403
Ar 20.0238 45.674 43.056
2

Ar 70.7998 92.1634 50.4403
Ar 31.9254 54.5512 63.168
2

Ar 18.7791 9.95439 68.2224
Ar 31.9254 54.5512 63.168
2

Ar 18.7791 9.95439 68.2224
Ar 31.9254 54.5512 63.168
2

Ar 18.7791 9.95439 68.2224
Ar 31.9254 54.5512 63.168
2

Ar 18.7791 9.95439 68.2224
Ar 31.9254 54.5512 63.168
2

Ar 23.6167 56.9979 75.2638
Ar 31.9254 54.5512 63.168
2

Ar 23.6167 56.9979 75.2638
Ar 31.9254 54.5512 63.168
2

Ar 23.6167 56.9979 75.2638
Ar 43.6002 91.0396 84.7863
2

Ar 23.6167 56.9979 75.2638
Ar 54.1946 33.726 4.28878
2

Ar 23.6167 56.9979 75.2638
Ar 54.1946 33.726 4.28878
2

Ar 23.6167 56.9979 75.2638
Ar 2.34684 56.6915 4.65128
2

Ar 33.8993 84.0047 8.20469
Ar 2.34684 56.6915 4.65128
2

Ar 39.7945 19.7256 22.6975
Ar 2.34684 56.6915 4.65128
2

Ar 39.7945 19.7256 22.6975
Ar 2.34684 56.6915 4.65128
2

Ar 47.0142 20.2585 44.2424
Ar 2.34684 56.6915 4.65128
2

Ar 47.0142 20.2585 44.2424
Ar 33.1146 61.6289 35.2137
2

Ar 47.0142 20.2585 44.2424
Ar 40.8771 10.272 39.818
2

Ar 47.0142 20.2585 44.2424
Ar 40.8771 10.272 39.818
2

Ar 47.0142 20.2585 44.2424
Ar 40.8771 10.272 39.818
2

Ar 47.0142 20.2585 44.2424
Ar 86.5596 30.7029 56.2843
2

Ar 47.0142 20.2585 44.2424
Ar 86.5596 30.7029 56.2843
2

Ar 81.5917 67.8958 89.5226
Ar 86.5596 30.7029 56.2843
2

Ar 81.5917 67.8958 89.5226
Ar 86.5596 30.7029 56.2843
2

Ar 81.5917 67.8958 89.5226
Ar 86.5596 30.7029 56.2843
2

Ar 81.5917 67.8958 89.5226
Ar 86.5596 30.7029 56.2843
2

Ar 81.5917 67.8958 89.5226
Ar 86.5596 30.7029 56.2843
2

Ar 81.5917 67.8958 89.5226
Ar 86.5596 30.7029 56.2843
2

Ar 81.5917 67.8958 89.5226
Ar 99.2256 62.1141 74.4521
2

Ar 81.5917 67.8958 89.5226
Ar 99.2256 62.1141 74.4521
2

Ar 81.5917 67.8958 89.5226
Ar 99.2256 62.1141 74.4521
2

Ar 81.5917 67.8958 89.5226
Ar 99.2256 62.1141 74.4521
2

Ar 85.7971 68.4525 33.5257
Ar 99.2256 62.1141 74.4521
2

Ar 85.7971 68.4525 33.5257
Ar 1.93102 77.8133 87.0061
2

Ar 85.7971 68.4525 33.5257
Ar 1.93102 77.8133 87.0061
2

Ar 26.2924 86.001 64.0314
Ar 1.93102 77.8133 87.0061
2

Ar 26.2924 86.001 64.0314
Ar 1.93102 77.8133 87.0061
2

Ar 26.2924 86.001 64.0314
Ar 9.25155 97.0023 32.4347
2

Ar 26.2924 86.001 64.0314
Ar 9.25155 97.0023 32.4347
2

Ar 63.6177 19.8397 70.0984
Ar 9.25155 97.0023 32.4347
2

Ar 63.6177 19.8397 70.0984
Ar 9.25155 97.0023 32.4347
2

Ar 5.82015 22.8789 71.8631
Ar 9.25155 97.0023 32.4347
2

Ar 5.82015 22.8789 71.8631
Ar 9.25155 97.0023 32.4347
2

Ar 5.82015 22.8789 71.8631
Ar 43.0154 97.9704 56.5341
2

Ar 5.82015 22.8789 71.8631
Ar 43.0154 97.9704 56.5341
2

Ar 5.82015 22.8789 71.8631
Ar 51.346 15.7032 87.8289
2

Ar 5.82015 22.8789 71.8631
Ar 51.346 15.7032 87.8289
2

Ar 5.82015 22.8789 71.8631
Ar 51.346 15.7032 87.8289
2

Ar 5.82015 22.8789 71.8631
Ar 51.346 15.7032 87.8289
2

Ar 5.82015 22.8789 71.8631
Ar 51.346 15.7032 87.8289
2

Ar 26.7359 25.1007 86.1286
Ar 51.346 15.7032 87.8289
2

Ar 26.7359 25.1007 86.1286
Ar 51.346 15.7032 87.8289
2

Ar 44.7102 58.279 30.7327
Ar 51.346 15.7032 87.8289
2

Ar 44.7102 58.279 30.7327
Ar 51.346 15.7032 87.8289
2

Ar 44.7102 58.279 30.7327
Ar 51.346 15.7032 87.8289
2

Ar 44.7102 58.279 30.7327
Ar 72.7675 63.5501 91.86
2

Ar 44.7102 58.279 30.7327
Ar 74.7414 69.4404 92.1753
2

Ar 44.7102 58.279 30.7327
Ar 74.7414 69.4404 92.1753
2

Ar 48.2949 59.56 34.8882
Ar 74.7414 69.4404 92.1753
2

Ar 48.2949 59.56 34.8882
Ar 74.7414 69.4404 92.1753
2

Ar 48.2949 59.56 34.8882
Ar 74.7414 69.4404 92.1753
2

Ar 60.9303 2.89068 77.7835
Ar 74.7414 69.4404 92.1753
2

Ar 1.91919 21.531 11.979
Ar 74.7414 69.4404 92.1753
2

Ar 30.8835 45.7799 24.8197
Ar 74.7414 69.4404 92.1753
2

Ar 30.8835 45.7799 24.8197
Ar 74.7414 69.4404 92.1753
2

Ar 30.8835 45.7799 24.8197
Ar 3.40912 81.4716 3.22552
2

Ar 30.8835 45.7799 24.8197
Ar 3.40912 81.4716 3.22552
2

Ar 30.8835 45.7799 24.8197
Ar 6.72349 9.57188 33.3793
2

Ar 30.8835 45.7799 24.8197
Ar 6.72349 9.57188 33.3793
2

Ar 79.1704 67.3986 27.5714
Ar 6.72349 9.57188 33.3793
2

Ar 89.4776 12.3441 44.6596
Ar 6.72349 9.57188 33.3793
2

Ar 89.4776 12.3441 44.6596
Ar 6.72349 9.57188 33.3793
2

Ar 89.4776 12.3441 44.6596
Ar 6.72349 9.57188 33.3793
2

Ar 89.4776 12.3441 44.6596
Ar 6.72349 9.57188 33.3793
2

Ar 89.4776 12.3441 44.6596
Ar 6.72349 9.57188 33.3793
2

Ar 89.4776 12.3441 44.6596
Ar 10.0823 48.5627 37.655
2

Ar 89.4776 12.3441 44.6596
Ar 10.0823 48.5627 37.655
2

Ar 89.4776 12.3441 44.6596
Ar 10.0823 48.5627 37.655
2

Ar 22.5034 15.1444 88.208
Ar 10.0823 48.5627 37.655
2

Ar 22.5034 15.1444 88.208
Ar 10.0823 48.5627 37.655
2

Ar 42.542 22.9492 8.73618
Ar 10.0823 48.5627 37.655
2

Ar 42.542 22.9492 8.73618
Ar 10.0823 48.5627 37.655
